output/1_QUEB_1/Cargas_BT_SA09_1_QUEB_1.dss
New "Load.BT_233150_M1" bus1="UC233150.1.2.3.4" phases=3 conn=delta model=2 kv=0.38 kw = 1.977447038778276 pf=0.92 status=variable vmaxpu=1.5 vminpu=0.93 daily="RU8_SA" 
New "Load.BT_233150_M2" bus1="UC233150.1.2.3.4" phases=3 conn=delta model=3 kv=0.38 kw = 1.977447038778276 pf=0.92 status=variable vmaxpu=1.5 vminpu=0.93 daily="RU8_SA"
 
New "Load.BT_233144_M1" bus1="UC233144.1.2.4" phases=2 conn=delta model=2 kv=0.38 kw = 0.31696801629040333 pf=0.92 status=variable vmaxpu=1.5 vminpu=0.93 daily="RU5_SA" 
New "Load.BT_233144_M2" bus1="UC233144.1.2.4" phases=2 conn=delta model=3 kv=0.38 kw = 0.31696801629040333 pf=0.92 status=variable vmaxpu=1.5 vminpu=0.93 daily="RU5_SA"
 
New "Load.BT_232530_M1" bus1="UC232530.1.2.4" phases=2 conn=delta model=2 kv=0.38 kw = 0.23378769613424777 pf=0.92 status=variable vmaxpu=1.5 vminpu=0.93 daily="RU3_SA" 
New "Load.BT_232530_M2" bus1="UC232530.1.2.4" phases=2 conn=delta model=3 kv=0.38 kw = 0.23378769613424777 pf=0.92 status=variable vmaxpu=1.5 vminpu=0.93 daily="RU3_SA"
 
New "Load.BT_231938_M1" bus1="UC231938.1.4" phases=1 conn=delta model=2 kv=0.22 kw = 0.28273605194547197 pf=0.92 status=variable vmaxpu=1.5 vminpu=0.93 daily="RU6_SA" 
New "Load.BT_231938_M2" bus1="UC231938.1.4" phases=1 conn=delta model=3 kv=0.22 kw = 0.28273605194547197 pf=0.92 status=variable vmaxpu=1.5 vminpu=0.93 daily="RU6_SA"
 
New "Load.BT_2831932_M1" bus1="UC2831932.1.4" phases=1 conn=delta model=2 kv=0.22 kw = 0.0507009461495959 pf=0.92 status=variable vmaxpu=1.5 vminpu=0.93 daily="RU3_SA" 
New "Load.BT_2831932_M2" bus1="UC2831932.1.4" phases=1 conn=delta model=3 kv=0.22 kw = 0.0507009461495959 pf=0.92 status=variable vmaxpu=1.5 vminpu=0.93 daily="RU3_SA"
 
New "Load.BT_231933_M1" bus1="UC231933.1.2.4" phases=2 conn=delta model=2 kv=0.44 kw = 1.2601141067209394 pf=0.92 status=variable vmaxpu=1.5 vminpu=0.93 daily="RU5_SA" 
New "Load.BT_231933_M2" bus1="UC231933.1.2.4" phases=2 conn=delta model=3 kv=0.44 kw = 1.2601141067209394 pf=0.92 status=variable vmaxpu=1.5 vminpu=0.93 daily="RU5_SA"
 
New "Load.BT_2831495_M1" bus1="UC2831495.1.4" phases=1 conn=delta model=2 kv=0.22 kw = 0.08637938973634857 pf=0.92 status=variable vmaxpu=1.5 vminpu=0.93 daily="RU3_SA" 
New "Load.BT_2831495_M2" bus1="UC2831495.1.4" phases=1 conn=delta model=3 kv=0.22 kw = 0.08637938973634857 pf=0.92 status=variable vmaxpu=1.5 vminpu=0.93 daily="RU3_SA"
 
New "Load.BT_2831490_M1" bus1="UC2831490.1.4" phases=1 conn=delta model=2 kv=0.22 kw = 0.009252694825187978 pf=0.92 status=variable vmaxpu=1.5 vminpu=0.93 daily="RU1_SA" 
New "Load.BT_2831490_M2" bus1="UC2831490.1.4" phases=1 conn=delta model=3 kv=0.22 kw = 0.009252694825187978 pf=0.92 status=variable vmaxpu=1.5 vminpu=0.93 daily="RU1_SA"
 
New "Load.BT_231251_M1" bus1="UC231251.3.4" phases=1 conn=delta model=2 kv=0.22 kw = 0.0 pf=0.92 status=variable vmaxpu=1.5 vminpu=0.93 daily="CO3_SA" 
New "Load.BT_231251_M2" bus1="UC231251.3.4" phases=1 conn=delta model=3 kv=0.22 kw = 0.0 pf=0.92 status=variable vmaxpu=1.5 vminpu=0.93 daily="CO3_SA"
 
New "Load.BT_2831192_M1" bus1="UC2831192.1.4" phases=1 conn=delta model=2 kv=0.22 kw = 0.03635783520011537 pf=0.92 status=variable vmaxpu=1.5 vminpu=0.93 daily="RU7_SA" 
New "Load.BT_2831192_M2" bus1="UC2831192.1.4" phases=1 conn=delta model=3 kv=0.22 kw = 0.03635783520011537 pf=0.92 status=variable vmaxpu=1.5 vminpu=0.93 daily="RU7_SA"
 
New "Load.BT_2831188_M1" bus1="UC2831188.1.4" phases=1 conn=delta model=2 kv=0.22 kw = 0.13878487463576353 pf=0.92 status=variable vmaxpu=1.5 vminpu=0.93 daily="PP3_SA" 
New "Load.BT_2831188_M2" bus1="UC2831188.1.4" phases=1 conn=delta model=3 kv=0.22 kw = 0.13878487463576353 pf=0.92 status=variable vmaxpu=1.5 vminpu=0.93 daily="PP3_SA"
 
New "Load.BT_230656_M1" bus1="UC230656.2.4" phases=1 conn=delta model=2 kv=0.22 kw = 0.0823247669700943 pf=0.92 status=variable vmaxpu=1.5 vminpu=0.93 daily="RU2_SA" 
New "Load.BT_230656_M2" bus1="UC230656.2.4" phases=1 conn=delta model=3 kv=0.22 kw = 0.0823247669700943 pf=0.92 status=variable vmaxpu=1.5 vminpu=0.93 daily="RU2_SA"
 
New "Load.BT_2830653_M1" bus1="UC2830653.2.4" phases=1 conn=delta model=2 kv=0.22 kw = 0.07326148987246923 pf=0.92 status=variable vmaxpu=1.5 vminpu=0.93 daily="RU2_SA" 
New "Load.BT_2830653_M2" bus1="UC2830653.2.4" phases=1 conn=delta model=3 kv=0.22 kw = 0.07326148987246923 pf=0.92 status=variable vmaxpu=1.5 vminpu=0.93 daily="RU2_SA"
 
New "Load.BT_230651_M1" bus1="UC230651.1.4" phases=1 conn=delta model=2 kv=0.22 kw = 0.30388537746981825 pf=0.92 status=variable vmaxpu=1.5 vminpu=0.93 daily="RU4_SA" 
New "Load.BT_230651_M2" bus1="UC230651.1.4" phases=1 conn=delta model=3 kv=0.22 kw = 0.30388537746981825 pf=0.92 status=variable vmaxpu=1.5 vminpu=0.93 daily="RU4_SA"
 
New "Load.BT_230555_M1" bus1="UC230555.1.4" phases=1 conn=delta model=2 kv=0.22 kw = 0.020747194445730564 pf=0.92 status=variable vmaxpu=1.5 vminpu=0.93 daily="RU4_SA" 
New "Load.BT_230555_M2" bus1="UC230555.1.4" phases=1 conn=delta model=3 kv=0.22 kw = 0.020747194445730564 pf=0.92 status=variable vmaxpu=1.5 vminpu=0.93 daily="RU4_SA"
 
New "Load.BT_228394_M1" bus1="UC228394.1.4" phases=1 conn=delta model=2 kv=0.22 kw = 0.4122800771329722 pf=0.92 status=variable vmaxpu=1.5 vminpu=0.93 daily="RU5_SA" 
New "Load.BT_228394_M2" bus1="UC228394.1.4" phases=1 conn=delta model=3 kv=0.22 kw = 0.4122800771329722 pf=0.92 status=variable vmaxpu=1.5 vminpu=0.93 daily="RU5_SA"
 
New "Load.BT_228388_M1" bus1="UC228388.1.4" phases=1 conn=delta model=2 kv=0.22 kw = 0.13437142664559065 pf=0.92 status=variable vmaxpu=1.5 vminpu=0.93 daily="RE1_SA" 
New "Load.BT_228388_M2" bus1="UC228388.1.4" phases=1 conn=delta model=3 kv=0.22 kw = 0.13437142664559065 pf=0.92 status=variable vmaxpu=1.5 vminpu=0.93 daily="RE1_SA"
 
New "Load.BT_227082_M1" bus1="UC227082.2.4" phases=1 conn=delta model=2 kv=0.22 kw = 0.0 pf=0.92 status=variable vmaxpu=1.5 vminpu=0.93 daily="RU7_SA" 
New "Load.BT_227082_M2" bus1="UC227082.2.4" phases=1 conn=delta model=3 kv=0.22 kw = 0.0 pf=0.92 status=variable vmaxpu=1.5 vminpu=0.93 daily="RU7_SA"
 
New "Load.BT_2827937_M1" bus1="UC2827937.1.4" phases=1 conn=delta model=2 kv=0.22 kw = 0.1545207996004903 pf=0.92 status=variable vmaxpu=1.5 vminpu=0.93 daily="RU7_SA" 
New "Load.BT_2827937_M2" bus1="UC2827937.1.4" phases=1 conn=delta model=3 kv=0.22 kw = 0.1545207996004903 pf=0.92 status=variable vmaxpu=1.5 vminpu=0.93 daily="RU7_SA"
 
New "Load.BT_228376_M1" bus1="UC228376.1.4" phases=1 conn=delta model=2 kv=0.22 kw = 0.4149438889146113 pf=0.92 status=variable vmaxpu=1.5 vminpu=0.93 daily="RU4_SA" 
New "Load.BT_228376_M2" bus1="UC228376.1.4" phases=1 conn=delta model=3 kv=0.22 kw = 0.4149438889146113 pf=0.92 status=variable vmaxpu=1.5 vminpu=0.93 daily="RU4_SA"
 
New "Load.BT_226217_M1" bus1="UC226217.1.4" phases=1 conn=delta model=2 kv=0.22 kw = 0.06179521996182113 pf=0.92 status=variable vmaxpu=1.5 vminpu=0.93 daily="RU8_SA" 
New "Load.BT_226217_M2" bus1="UC226217.1.4" phases=1 conn=delta model=3 kv=0.22 kw = 0.06179521996182113 pf=0.92 status=variable vmaxpu=1.5 vminpu=0.93 daily="RU8_SA"
 
New "Load.BT_226224_M1" bus1="UC226224.2.4" phases=1 conn=delta model=2 kv=0.22 kw = 0.0 pf=0.92 status=variable vmaxpu=1.5 vminpu=0.93 daily="RE6_SA" 
New "Load.BT_226224_M2" bus1="UC226224.2.4" phases=1 conn=delta model=3 kv=0.22 kw = 0.0 pf=0.92 status=variable vmaxpu=1.5 vminpu=0.93 daily="RE6_SA"
 
New "Load.BT_226233_M1" bus1="UC226233.1.2.3.4" phases=3 conn=delta model=2 kv=0.38 kw = 0.6988423809358375 pf=0.92 status=variable vmaxpu=1.5 vminpu=0.93 daily="CO4_SA" 
New "Load.BT_226233_M2" bus1="UC226233.1.2.3.4" phases=3 conn=delta model=3 kv=0.38 kw = 0.6988423809358375 pf=0.92 status=variable vmaxpu=1.5 vminpu=0.93 daily="CO4_SA"
 
New "Load.BT_227077_M1" bus1="UC227077.2.4" phases=1 conn=delta model=2 kv=0.22 kw = 0.26473048755084 pf=0.92 status=variable vmaxpu=1.5 vminpu=0.93 daily="RU7_SA" 
New "Load.BT_227077_M2" bus1="UC227077.2.4" phases=1 conn=delta model=3 kv=0.22 kw = 0.26473048755084 pf=0.92 status=variable vmaxpu=1.5 vminpu=0.93 daily="RU7_SA"
 
New "Load.BT_227073_M1" bus1="UC227073.2.4" phases=1 conn=delta model=2 kv=0.22 kw = 0.030983911535864158 pf=0.92 status=variable vmaxpu=1.5 vminpu=0.93 daily="RU3_SA" 
New "Load.BT_227073_M2" bus1="UC227073.2.4" phases=1 conn=delta model=3 kv=0.22 kw = 0.030983911535864158 pf=0.92 status=variable vmaxpu=1.5 vminpu=0.93 daily="RU3_SA"
 
New "Load.BT_2805756_M1" bus1="UC2805756.1.2.3.4" phases=3 conn=delta model=2 kv=0.38 kw = 0.33080961406331477 pf=0.92 status=variable vmaxpu=1.5 vminpu=0.93 daily="RU2_SA" 
New "Load.BT_2805756_M2" bus1="UC2805756.1.2.3.4" phases=3 conn=delta model=3 kv=0.38 kw = 0.33080961406331477 pf=0.92 status=variable vmaxpu=1.5 vminpu=0.93 daily="RU2_SA"
 
New "Load.BT_2805757_M1" bus1="UC2805757.1.2.3.4" phases=3 conn=delta model=2 kv=0.38 kw = 0.22960301980650155 pf=0.92 status=variable vmaxpu=1.5 vminpu=0.93 daily="RU2_SA" 
New "Load.BT_2805757_M2" bus1="UC2805757.1.2.3.4" phases=3 conn=delta model=3 kv=0.38 kw = 0.22960301980650155 pf=0.92 status=variable vmaxpu=1.5 vminpu=0.93 daily="RU2_SA"
 
New "Load.BT_2819390_M1" bus1="UC2819390.1.4" phases=1 conn=delta model=2 kv=0.22 kw = 0.7135876590829344 pf=0.92 status=variable vmaxpu=1.5 vminpu=0.93 daily="RU8_SA" 
New "Load.BT_2819390_M2" bus1="UC2819390.1.4" phases=1 conn=delta model=3 kv=0.22 kw = 0.7135876590829344 pf=0.92 status=variable vmaxpu=1.5 vminpu=0.93 daily="RU8_SA"
 
New "Load.BT_2819375_M1" bus1="UC2819375.1.4" phases=1 conn=delta model=2 kv=0.22 kw = 0.003398728911609398 pf=0.92 status=variable vmaxpu=1.5 vminpu=0.93 daily="RU2_SA" 
New "Load.BT_2819375_M2" bus1="UC2819375.1.4" phases=1 conn=delta model=3 kv=0.22 kw = 0.003398728911609398 pf=0.92 status=variable vmaxpu=1.5 vminpu=0.93 daily="RU2_SA"
 
New "Load.BT_2819355_M1" bus1="UC2819355.1.4" phases=1 conn=delta model=2 kv=0.22 kw = 0.0036580421401905963 pf=0.92 status=variable vmaxpu=1.5 vminpu=0.93 daily="RU1_SA" 
New "Load.BT_2819355_M2" bus1="UC2819355.1.4" phases=1 conn=delta model=3 kv=0.22 kw = 0.0036580421401905963 pf=0.92 status=variable vmaxpu=1.5 vminpu=0.93 daily="RU1_SA"
 
New "Load.BT_2822268_M1" bus1="UC2822268.2.4" phases=1 conn=delta model=2 kv=0.22 kw = 0.34069694259429373 pf=0.92 status=variable vmaxpu=1.5 vminpu=0.93 daily="RU6_SA" 
New "Load.BT_2822268_M2" bus1="UC2822268.2.4" phases=1 conn=delta model=3 kv=0.22 kw = 0.34069694259429373 pf=0.92 status=variable vmaxpu=1.5 vminpu=0.93 daily="RU6_SA"
 
New "Load.BT_2806028_M1" bus1="UC2806028.2.4" phases=1 conn=delta model=2 kv=0.22 kw = 0.3604884662304767 pf=0.92 status=variable vmaxpu=1.5 vminpu=0.93 daily="RU6_SA" 
New "Load.BT_2806028_M2" bus1="UC2806028.2.4" phases=1 conn=delta model=3 kv=0.22 kw = 0.3604884662304767 pf=0.92 status=variable vmaxpu=1.5 vminpu=0.93 daily="RU6_SA"
 
New "Load.BT_2806039_M1" bus1="UC2806039.1.2.3.4" phases=3 conn=delta model=2 kv=0.38 kw = 1.0691475913533925 pf=0.92 status=variable vmaxpu=1.5 vminpu=0.93 daily="RU7_SA" 
New "Load.BT_2806039_M2" bus1="UC2806039.1.2.3.4" phases=3 conn=delta model=3 kv=0.38 kw = 1.0691475913533925 pf=0.92 status=variable vmaxpu=1.5 vminpu=0.93 daily="RU7_SA"
 
New "Load.BT_2805793_M1" bus1="UC2805793.2.4" phases=1 conn=delta model=2 kv=0.22 kw = 0.1769613643900548 pf=0.92 status=variable vmaxpu=1.5 vminpu=0.93 daily="RU4_SA" 
New "Load.BT_2805793_M2" bus1="UC2805793.2.4" phases=1 conn=delta model=3 kv=0.22 kw = 0.1769613643900548 pf=0.92 status=variable vmaxpu=1.5 vminpu=0.93 daily="RU4_SA"
 
New "Load.BT_2805784_M1" bus1="UC2805784.1.4" phases=1 conn=delta model=2 kv=0.22 kw = 0.12412733505078735 pf=0.92 status=variable vmaxpu=1.5 vminpu=0.93 daily="RU5_SA" 
New "Load.BT_2805784_M2" bus1="UC2805784.1.4" phases=1 conn=delta model=3 kv=0.22 kw = 0.12412733505078735 pf=0.92 status=variable vmaxpu=1.5 vminpu=0.93 daily="RU5_SA"
 
New "Load.BT_2805785_M1" bus1="UC2805785.1.4" phases=1 conn=delta model=2 kv=0.22 kw = 0.002265819274406265 pf=0.92 status=variable vmaxpu=1.5 vminpu=0.93 daily="RU2_SA" 
New "Load.BT_2805785_M2" bus1="UC2805785.1.4" phases=1 conn=delta model=3 kv=0.22 kw = 0.002265819274406265 pf=0.92 status=variable vmaxpu=1.5 vminpu=0.93 daily="RU2_SA"
 
New "Load.BT_2805790_M1" bus1="UC2805790.2.4" phases=1 conn=delta model=2 kv=0.22 kw = 0.10417829906048222 pf=0.92 status=variable vmaxpu=1.5 vminpu=0.93 daily="RU5_SA" 
New "Load.BT_2805790_M2" bus1="UC2805790.2.4" phases=1 conn=delta model=3 kv=0.22 kw = 0.10417829906048222 pf=0.92 status=variable vmaxpu=1.5 vminpu=0.93 daily="RU5_SA"
 
New "Load.BT_2805782_M1" bus1="UC2805782.2.4" phases=1 conn=delta model=2 kv=0.22 kw = 0.06326653472281688 pf=0.92 status=variable vmaxpu=1.5 vminpu=0.93 daily="RU8_SA" 
New "Load.BT_2805782_M2" bus1="UC2805782.2.4" phases=1 conn=delta model=3 kv=0.22 kw = 0.06326653472281688 pf=0.92 status=variable vmaxpu=1.5 vminpu=0.93 daily="RU8_SA"
 
New "Load.BT_2805766_M1" bus1="UC2805766.2.4" phases=1 conn=delta model=2 kv=0.22 kw = 0.1724689916867379 pf=0.92 status=variable vmaxpu=1.5 vminpu=0.93 daily="RU6_SA" 
New "Load.BT_2805766_M2" bus1="UC2805766.2.4" phases=1 conn=delta model=3 kv=0.22 kw = 0.1724689916867379 pf=0.92 status=variable vmaxpu=1.5 vminpu=0.93 daily="RU6_SA"
 
New "Load.BT_2817050_M1" bus1="UC2817050.2.4" phases=1 conn=delta model=2 kv=0.22 kw = 0.11816296440037494 pf=0.92 status=variable vmaxpu=1.5 vminpu=0.93 daily="RU7_SA" 
New "Load.BT_2817050_M2" bus1="UC2817050.2.4" phases=1 conn=delta model=3 kv=0.22 kw = 0.11816296440037494 pf=0.92 status=variable vmaxpu=1.5 vminpu=0.93 daily="RU7_SA"
 
New "Load.BT_2818311_M1" bus1="UC2818311.2.4" phases=1 conn=delta model=2 kv=0.22 kw = 0.05249147985707847 pf=0.92 status=variable vmaxpu=1.5 vminpu=0.93 daily="RU2_SA" 
New "Load.BT_2818311_M2" bus1="UC2818311.2.4" phases=1 conn=delta model=3 kv=0.22 kw = 0.05249147985707847 pf=0.92 status=variable vmaxpu=1.5 vminpu=0.93 daily="RU2_SA"
 
New "Load.BT_2825858_M1" bus1="UC2825858.2.4" phases=1 conn=delta model=2 kv=0.22 kw = 0.21601490687613586 pf=0.92 status=variable vmaxpu=1.5 vminpu=0.93 daily="RU4_SA" 
New "Load.BT_2825858_M2" bus1="UC2825858.2.4" phases=1 conn=delta model=3 kv=0.22 kw = 0.21601490687613586 pf=0.92 status=variable vmaxpu=1.5 vminpu=0.93 daily="RU4_SA"
 
New "Load.BT_2817028_M1" bus1="UC2817028.1.4" phases=1 conn=delta model=2 kv=0.22 kw = 0.988723519389138 pf=0.92 status=variable vmaxpu=1.5 vminpu=0.93 daily="RU8_SA" 
New "Load.BT_2817028_M2" bus1="UC2817028.1.4" phases=1 conn=delta model=3 kv=0.22 kw = 0.988723519389138 pf=0.92 status=variable vmaxpu=1.5 vminpu=0.93 daily="RU8_SA"
 
New "Load.BT_2817013_M1" bus1="UC2817013.1.4" phases=1 conn=delta model=2 kv=0.22 kw = 0.028167192305331056 pf=0.92 status=variable vmaxpu=1.5 vminpu=0.93 daily="RU3_SA" 
New "Load.BT_2817013_M2" bus1="UC2817013.1.4" phases=1 conn=delta model=3 kv=0.22 kw = 0.028167192305331056 pf=0.92 status=variable vmaxpu=1.5 vminpu=0.93 daily="RU3_SA"
 
New "Load.BT_226211_M1" bus1="UC226211.1.4" phases=1 conn=delta model=2 kv=0.22 kw = 0.061932393500437916 pf=0.92 status=variable vmaxpu=1.5 vminpu=0.93 daily="RU2_SA" 
New "Load.BT_226211_M2" bus1="UC226211.1.4" phases=1 conn=delta model=3 kv=0.22 kw = 0.061932393500437916 pf=0.92 status=variable vmaxpu=1.5 vminpu=0.93 daily="RU2_SA"
 
New "Load.BT_205798_M1" bus1="UC205798.1.4" phases=1 conn=delta model=2 kv=0.22 kw = 0.02659871465374014 pf=0.92 status=variable vmaxpu=1.5 vminpu=0.93 daily="RU5_SA" 
New "Load.BT_205798_M2" bus1="UC205798.1.4" phases=1 conn=delta model=3 kv=0.22 kw = 0.02659871465374014 pf=0.92 status=variable vmaxpu=1.5 vminpu=0.93 daily="RU5_SA"
 
New "Load.BT_221678_M1" bus1="UC221678.1.4" phases=1 conn=delta model=2 kv=0.22 kw = 0.09858517306865869 pf=0.92 status=variable vmaxpu=1.5 vminpu=0.93 daily="RU3_SA" 
New "Load.BT_221678_M2" bus1="UC221678.1.4" phases=1 conn=delta model=3 kv=0.22 kw = 0.09858517306865869 pf=0.92 status=variable vmaxpu=1.5 vminpu=0.93 daily="RU3_SA"
 
New "Load.BT_205762_M1" bus1="UC205762.2.4" phases=1 conn=delta model=2 kv=0.22 kw = 0.4874222281515466 pf=0.92 status=variable vmaxpu=1.5 vminpu=0.93 daily="RU7_SA" 
New "Load.BT_205762_M2" bus1="UC205762.2.4" phases=1 conn=delta model=3 kv=0.22 kw = 0.4874222281515466 pf=0.92 status=variable vmaxpu=1.5 vminpu=0.93 daily="RU7_SA"
 
New "Load.BT_205763_M1" bus1="UC205763.1.2.4" phases=2 conn=delta model=2 kv=0.44 kw = 0.41006351757849385 pf=0.92 status=variable vmaxpu=1.5 vminpu=0.93 daily="RU5_SA" 
New "Load.BT_205763_M2" bus1="UC205763.1.2.4" phases=2 conn=delta model=3 kv=0.44 kw = 0.41006351757849385 pf=0.92 status=variable vmaxpu=1.5 vminpu=0.93 daily="RU5_SA"
 
New "Load.BT_205767_M1" bus1="UC205767.1.2.4" phases=2 conn=delta model=2 kv=0.44 kw = 0.06344293968337543 pf=0.92 status=variable vmaxpu=1.5 vminpu=0.93 daily="RU2_SA" 
New "Load.BT_205767_M2" bus1="UC205767.1.2.4" phases=2 conn=delta model=3 kv=0.44 kw = 0.06344293968337543 pf=0.92 status=variable vmaxpu=1.5 vminpu=0.93 daily="RU2_SA"
 
New "Load.BT_221287_M1" bus1="UC221287.1.2.3.4" phases=3 conn=delta model=2 kv=0.38 kw = 0.08912222479331311 pf=0.92 status=variable vmaxpu=1.5 vminpu=0.93 daily="RU2_SA" 
New "Load.BT_221287_M2" bus1="UC221287.1.2.3.4" phases=3 conn=delta model=3 kv=0.38 kw = 0.08912222479331311 pf=0.92 status=variable vmaxpu=1.5 vminpu=0.93 daily="RU2_SA"
 
New "Load.BT_205749_M1" bus1="UC205749.1.2.4" phases=2 conn=delta model=2 kv=0.44 kw = 0.2427669355642973 pf=0.92 status=variable vmaxpu=1.5 vminpu=0.93 daily="RU8_SA" 
New "Load.BT_205749_M2" bus1="UC205749.1.2.4" phases=2 conn=delta model=3 kv=0.44 kw = 0.2427669355642973 pf=0.92 status=variable vmaxpu=1.5 vminpu=0.93 daily="RU8_SA"
 
New "Load.BT_205751_M1" bus1="UC205751.2.4" phases=1 conn=delta model=2 kv=0.22 kw = 0.1427895147147339 pf=0.92 status=variable vmaxpu=1.5 vminpu=0.93 daily="RU4_SA" 
New "Load.BT_205751_M2" bus1="UC205751.2.4" phases=1 conn=delta model=3 kv=0.22 kw = 0.1427895147147339 pf=0.92 status=variable vmaxpu=1.5 vminpu=0.93 daily="RU4_SA"
 
New "Load.BT_205752_M1" bus1="UC205752.1.2.3.4" phases=3 conn=delta model=2 kv=0.38 kw = 0.017321905428549587 pf=0.92 status=variable vmaxpu=1.5 vminpu=0.93 daily="RU1_SA" 
New "Load.BT_205752_M2" bus1="UC205752.1.2.3.4" phases=3 conn=delta model=3 kv=0.38 kw = 0.017321905428549587 pf=0.92 status=variable vmaxpu=1.5 vminpu=0.93 daily="RU1_SA"
 
New "Load.BT_205753_M1" bus1="UC205753.2.4" phases=1 conn=delta model=2 kv=0.22 kw = 0.029903491446554097 pf=0.92 status=variable vmaxpu=1.5 vminpu=0.93 daily="CO6_SA" 
New "Load.BT_205753_M2" bus1="UC205753.2.4" phases=1 conn=delta model=3 kv=0.22 kw = 0.029903491446554097 pf=0.92 status=variable vmaxpu=1.5 vminpu=0.93 daily="CO6_SA"
 
New "Load.BT_205754_M1" bus1="UC205754.1.2.3.4" phases=3 conn=delta model=2 kv=0.38 kw = 0.295734266960144 pf=0.92 status=variable vmaxpu=1.5 vminpu=0.93 daily="RU8_SA" 
New "Load.BT_205754_M2" bus1="UC205754.1.2.3.4" phases=3 conn=delta model=3 kv=0.38 kw = 0.295734266960144 pf=0.92 status=variable vmaxpu=1.5 vminpu=0.93 daily="RU8_SA"
 
New "Load.BT_205755_M1" bus1="UC205755.1.4" phases=1 conn=delta model=2 kv=0.22 kw = 0.2084372230594498 pf=0.92 status=variable vmaxpu=1.5 vminpu=0.93 daily="RU3_SA" 
New "Load.BT_205755_M2" bus1="UC205755.1.4" phases=1 conn=delta model=3 kv=0.22 kw = 0.2084372230594498 pf=0.92 status=variable vmaxpu=1.5 vminpu=0.93 daily="RU3_SA"
 
New "Load.BT_205747_M1" bus1="UC205747.1.4" phases=1 conn=delta model=2 kv=0.22 kw = 0.007208494805669704 pf=0.92 status=variable vmaxpu=1.5 vminpu=0.93 daily="RU1_SA" 
New "Load.BT_205747_M2" bus1="UC205747.1.4" phases=1 conn=delta model=3 kv=0.22 kw = 0.007208494805669704 pf=0.92 status=variable vmaxpu=1.5 vminpu=0.93 daily="RU1_SA"
 
New "Load.BT_205746_M1" bus1="UC205746.1.4" phases=1 conn=delta model=2 kv=0.22 kw = 0.039725498546885014 pf=0.92 status=variable vmaxpu=1.5 vminpu=0.93 daily="RU8_SA" 
New "Load.BT_205746_M2" bus1="UC205746.1.4" phases=1 conn=delta model=3 kv=0.22 kw = 0.039725498546885014 pf=0.92 status=variable vmaxpu=1.5 vminpu=0.93 daily="RU8_SA"
 
New "Load.BT_220652_M1" bus1="UC220652.1.4" phases=1 conn=delta model=2 kv=0.22 kw = 0.23828015210642212 pf=0.92 status=variable vmaxpu=1.5 vminpu=0.93 daily="RU5_SA" 
New "Load.BT_220652_M2" bus1="UC220652.1.4" phases=1 conn=delta model=3 kv=0.22 kw = 0.23828015210642212 pf=0.92 status=variable vmaxpu=1.5 vminpu=0.93 daily="RU5_SA"
 
New "Load.BT_221021_M1" bus1="UC221021.1.4" phases=1 conn=delta model=2 kv=0.22 kw = 0.044561112396656555 pf=0.92 status=variable vmaxpu=1.5 vminpu=0.93 daily="RU2_SA" 
New "Load.BT_221021_M2" bus1="UC221021.1.4" phases=1 conn=delta model=3 kv=0.22 kw = 0.044561112396656555 pf=0.92 status=variable vmaxpu=1.5 vminpu=0.93 daily="RU2_SA"
 
New "Load.BT_205739_M1" bus1="UC205739.1.4" phases=1 conn=delta model=2 kv=0.22 kw = 0.4048149656853855 pf=0.92 status=variable vmaxpu=1.5 vminpu=0.93 daily="RE5_SA" 
New "Load.BT_205739_M2" bus1="UC205739.1.4" phases=1 conn=delta model=3 kv=0.22 kw = 0.4048149656853855 pf=0.92 status=variable vmaxpu=1.5 vminpu=0.93 daily="RE5_SA"
 
New "Load.BT_205744_M1" bus1="UC205744.1.2.3.4" phases=3 conn=delta model=2 kv=0.38 kw = 0.09420378106532966 pf=0.92 status=variable vmaxpu=1.5 vminpu=0.93 daily="RU5_SA" 
New "Load.BT_205744_M2" bus1="UC205744.1.2.3.4" phases=3 conn=delta model=3 kv=0.38 kw = 0.09420378106532966 pf=0.92 status=variable vmaxpu=1.5 vminpu=0.93 daily="RU5_SA"
 
New "Load.BT_205745_M1" bus1="UC205745.1.2.3.4" phases=3 conn=delta model=2 kv=0.38 kw = 0.18065299365057322 pf=0.92 status=variable vmaxpu=1.5 vminpu=0.93 daily="RU7_SA" 
New "Load.BT_205745_M2" bus1="UC205745.1.2.3.4" phases=3 conn=delta model=3 kv=0.38 kw = 0.18065299365057322 pf=0.92 status=variable vmaxpu=1.5 vminpu=0.93 daily="RU7_SA"
 
New "Load.BT_205737_M1" bus1="UC205737.2.4" phases=1 conn=delta model=2 kv=0.22 kw = 0.3532007225350065 pf=0.92 status=variable vmaxpu=1.5 vminpu=0.93 daily="RE6_SA" 
New "Load.BT_205737_M2" bus1="UC205737.2.4" phases=1 conn=delta model=3 kv=0.22 kw = 0.3532007225350065 pf=0.92 status=variable vmaxpu=1.5 vminpu=0.93 daily="RE6_SA"
 
New "Load.BT_225866_M1" bus1="UC225866.1.2.3.4" phases=3 conn=delta model=2 kv=0.38 kw = 0.13708033588594445 pf=0.92 status=variable vmaxpu=1.5 vminpu=0.93 daily="RU3_SA" 
New "Load.BT_225866_M2" bus1="UC225866.1.2.3.4" phases=3 conn=delta model=3 kv=0.38 kw = 0.13708033588594445 pf=0.92 status=variable vmaxpu=1.5 vminpu=0.93 daily="RU3_SA"
 
New "Load.BT_228021_M1" bus1="UC228021.2.4" phases=1 conn=delta model=2 kv=0.22 kw = 0.36246569119893984 pf=0.92 status=variable vmaxpu=1.5 vminpu=0.93 daily="RU4_SA" 
New "Load.BT_228021_M2" bus1="UC228021.2.4" phases=1 conn=delta model=3 kv=0.22 kw = 0.36246569119893984 pf=0.92 status=variable vmaxpu=1.5 vminpu=0.93 daily="RU4_SA"
 
New "Load.BT_223629_M1" bus1="UC223629.1.4" phases=1 conn=delta model=2 kv=0.22 kw = 0.03758641304771766 pf=0.92 status=variable vmaxpu=1.5 vminpu=0.93 daily="RE1_SA" 
New "Load.BT_223629_M2" bus1="UC223629.1.4" phases=1 conn=delta model=3 kv=0.22 kw = 0.03758641304771766 pf=0.92 status=variable vmaxpu=1.5 vminpu=0.93 daily="RE1_SA"
 
New "Load.BT_217024_M1" bus1="UC217024.1.4" phases=1 conn=delta model=2 kv=0.22 kw = 0.14656752315046506 pf=0.92 status=variable vmaxpu=1.5 vminpu=0.93 daily="RU7_SA" 
New "Load.BT_217024_M2" bus1="UC217024.1.4" phases=1 conn=delta model=3 kv=0.22 kw = 0.14656752315046506 pf=0.92 status=variable vmaxpu=1.5 vminpu=0.93 daily="RU7_SA"
 
New "Load.BT_223627_M1" bus1="UC223627.2.4" phases=1 conn=delta model=2 kv=0.22 kw = 0.036782869024893534 pf=0.92 status=variable vmaxpu=1.5 vminpu=0.93 daily="RU8_SA" 
New "Load.BT_223627_M2" bus1="UC223627.2.4" phases=1 conn=delta model=3 kv=0.22 kw = 0.036782869024893534 pf=0.92 status=variable vmaxpu=1.5 vminpu=0.93 daily="RU8_SA"
 
New "Load.BT_205672_M1" bus1="UC205672.1.4" phases=1 conn=delta model=2 kv=0.22 kw = 0.07775241428500478 pf=0.92 status=variable vmaxpu=1.5 vminpu=0.93 daily="RU6_SA" 
New "Load.BT_205672_M2" bus1="UC205672.1.4" phases=1 conn=delta model=3 kv=0.22 kw = 0.07775241428500478 pf=0.92 status=variable vmaxpu=1.5 vminpu=0.93 daily="RU6_SA"
 
New "Load.BT_205673_M1" bus1="UC205673.2.4" phases=1 conn=delta model=2 kv=0.22 kw = 0.28801987583484784 pf=0.92 status=variable vmaxpu=1.5 vminpu=0.93 daily="RU4_SA" 
New "Load.BT_205673_M2" bus1="UC205673.2.4" phases=1 conn=delta model=3 kv=0.22 kw = 0.28801987583484784 pf=0.92 status=variable vmaxpu=1.5 vminpu=0.93 daily="RU4_SA"
 
New "Load.BT_205666_M1" bus1="UC205666.1.2.3.4" phases=3 conn=delta model=2 kv=0.38 kw = 0.5128304291072847 pf=0.92 status=variable vmaxpu=1.5 vminpu=0.93 daily="RU2_SA" 
New "Load.BT_205666_M2" bus1="UC205666.1.2.3.4" phases=3 conn=delta model=3 kv=0.38 kw = 0.5128304291072847 pf=0.92 status=variable vmaxpu=1.5 vminpu=0.93 daily="RU2_SA"
 
New "Load.BT_205668_M1" bus1="UC205668.1.4" phases=1 conn=delta model=2 kv=0.22 kw = 0.016999137004415122 pf=0.92 status=variable vmaxpu=1.5 vminpu=0.93 daily="RU1_SA" 
New "Load.BT_205668_M2" bus1="UC205668.1.4" phases=1 conn=delta model=3 kv=0.22 kw = 0.016999137004415122 pf=0.92 status=variable vmaxpu=1.5 vminpu=0.93 daily="RU1_SA"
 
New "Load.BT_205669_M1" bus1="UC205669.2.4" phases=1 conn=delta model=2 kv=0.22 kw = 0.034739537176574964 pf=0.92 status=variable vmaxpu=1.5 vminpu=0.93 daily="RU3_SA" 
New "Load.BT_205669_M2" bus1="UC205669.2.4" phases=1 conn=delta model=3 kv=0.22 kw = 0.034739537176574964 pf=0.92 status=variable vmaxpu=1.5 vminpu=0.93 daily="RU3_SA"
 
New "Load.BT_205670_M1" bus1="UC205670.2.4" phases=1 conn=delta model=2 kv=0.22 kw = 0.08665004739099236 pf=0.92 status=variable vmaxpu=1.5 vminpu=0.93 daily="RU4_SA" 
New "Load.BT_205670_M2" bus1="UC205670.2.4" phases=1 conn=delta model=3 kv=0.22 kw = 0.08665004739099236 pf=0.92 status=variable vmaxpu=1.5 vminpu=0.93 daily="RU4_SA"
 
New "Load.BT_205671_M1" bus1="UC205671.2.4" phases=1 conn=delta model=2 kv=0.22 kw = 0.32957450646304604 pf=0.92 status=variable vmaxpu=1.5 vminpu=0.93 daily="RU8_SA" 
New "Load.BT_205671_M2" bus1="UC205671.2.4" phases=1 conn=delta model=3 kv=0.22 kw = 0.32957450646304604 pf=0.92 status=variable vmaxpu=1.5 vminpu=0.93 daily="RU8_SA"
 
New "Load.BT_206078_M1" bus1="UC206078.1.4" phases=1 conn=delta model=2 kv=0.22 kw = 0.004034605301680805 pf=0.92 status=variable vmaxpu=1.5 vminpu=0.93 daily="RU1_SA" 
New "Load.BT_206078_M2" bus1="UC206078.1.4" phases=1 conn=delta model=3 kv=0.22 kw = 0.004034605301680805 pf=0.92 status=variable vmaxpu=1.5 vminpu=0.93 daily="RU1_SA"
 
New "Load.BT_206080_M1" bus1="UC206080.2.4" phases=1 conn=delta model=2 kv=0.22 kw = 0.5199002843459541 pf=0.92 status=variable vmaxpu=1.5 vminpu=0.93 daily="RU4_SA" 
New "Load.BT_206080_M2" bus1="UC206080.2.4" phases=1 conn=delta model=3 kv=0.22 kw = 0.5199002843459541 pf=0.92 status=variable vmaxpu=1.5 vminpu=0.93 daily="RU4_SA"
 
New "Load.BT_205662_M1" bus1="UC205662.1.4" phases=1 conn=delta model=2 kv=0.22 kw = 0.6997717285650431 pf=0.92 status=variable vmaxpu=1.5 vminpu=0.93 daily="RU6_SA" 
New "Load.BT_205662_M2" bus1="UC205662.1.4" phases=1 conn=delta model=3 kv=0.22 kw = 0.6997717285650431 pf=0.92 status=variable vmaxpu=1.5 vminpu=0.93 daily="RU6_SA"
 
New "Load.BT_205664_M1" bus1="UC205664.1.2.4" phases=2 conn=delta model=2 kv=0.44 kw = 0.07792923204474926 pf=0.92 status=variable vmaxpu=1.5 vminpu=0.93 daily="RU3_SA" 
New "Load.BT_205664_M2" bus1="UC205664.1.2.4" phases=2 conn=delta model=3 kv=0.44 kw = 0.07792923204474926 pf=0.92 status=variable vmaxpu=1.5 vminpu=0.93 daily="RU3_SA"
 
New "Load.BT_205655_M1" bus1="UC205655.1.4" phases=1 conn=delta model=2 kv=0.22 kw = 0.17621648458102845 pf=0.92 status=variable vmaxpu=1.5 vminpu=0.93 daily="RU5_SA" 
New "Load.BT_205655_M2" bus1="UC205655.1.4" phases=1 conn=delta model=3 kv=0.22 kw = 0.17621648458102845 pf=0.92 status=variable vmaxpu=1.5 vminpu=0.93 daily="RU5_SA"
 
New "Load.BT_205658_M1" bus1="UC205658.1.4" phases=1 conn=delta model=2 kv=0.22 kw = 0.2636114117810472 pf=0.92 status=variable vmaxpu=1.5 vminpu=0.93 daily="RU4_SA" 
New "Load.BT_205658_M2" bus1="UC205658.1.4" phases=1 conn=delta model=3 kv=0.22 kw = 0.2636114117810472 pf=0.92 status=variable vmaxpu=1.5 vminpu=0.93 daily="RU4_SA"
 
New "Load.BT_205659_M1" bus1="UC205659.1.2.3.4" phases=3 conn=delta model=2 kv=0.38 kw = 0.23064501705073187 pf=0.92 status=variable vmaxpu=1.5 vminpu=0.93 daily="RU7_SA" 
New "Load.BT_205659_M2" bus1="UC205659.1.2.3.4" phases=3 conn=delta model=3 kv=0.38 kw = 0.23064501705073187 pf=0.92 status=variable vmaxpu=1.5 vminpu=0.93 daily="RU7_SA"
 
New "Load.BT_206061_M1" bus1="UC206061.1.4" phases=1 conn=delta model=2 kv=0.22 kw = 0.05858031372912159 pf=0.92 status=variable vmaxpu=1.5 vminpu=0.93 daily="RU4_SA" 
New "Load.BT_206061_M2" bus1="UC206061.1.4" phases=1 conn=delta model=3 kv=0.22 kw = 0.05858031372912159 pf=0.92 status=variable vmaxpu=1.5 vminpu=0.93 daily="RU4_SA"
 
New "Load.BT_205649_M1" bus1="UC205649.1.2.3.4" phases=3 conn=delta model=2 kv=0.38 kw = 0.3361284948436173 pf=0.92 status=variable vmaxpu=1.5 vminpu=0.93 daily="RU3_SA" 
New "Load.BT_205649_M2" bus1="UC205649.1.2.3.4" phases=3 conn=delta model=3 kv=0.38 kw = 0.3361284948436173 pf=0.92 status=variable vmaxpu=1.5 vminpu=0.93 daily="RU3_SA"
 
New "Load.BT_205650_M1" bus1="UC205650.1.4" phases=1 conn=delta model=2 kv=0.22 kw = 0.1724689916867379 pf=0.92 status=variable vmaxpu=1.5 vminpu=0.93 daily="RU6_SA" 
New "Load.BT_205650_M2" bus1="UC205650.1.4" phases=1 conn=delta model=3 kv=0.22 kw = 0.1724689916867379 pf=0.92 status=variable vmaxpu=1.5 vminpu=0.93 daily="RU6_SA"
 
New "Load.BT_205651_M1" bus1="UC205651.1.2.3.4" phases=3 conn=delta model=2 kv=0.38 kw = 0.7441994392523613 pf=0.92 status=variable vmaxpu=1.5 vminpu=0.93 daily="RU7_SA" 
New "Load.BT_205651_M2" bus1="UC205651.1.2.3.4" phases=3 conn=delta model=3 kv=0.38 kw = 0.7441994392523613 pf=0.92 status=variable vmaxpu=1.5 vminpu=0.93 daily="RU7_SA"
 
New "Load.BT_205653_M1" bus1="UC205653.1.2.3.4" phases=3 conn=delta model=2 kv=0.38 kw = 0.19127091892944634 pf=0.92 status=variable vmaxpu=1.5 vminpu=0.93 daily="RU8_SA" 
New "Load.BT_205653_M2" bus1="UC205653.1.2.3.4" phases=3 conn=delta model=3 kv=0.38 kw = 0.19127091892944634 pf=0.92 status=variable vmaxpu=1.5 vminpu=0.93 daily="RU8_SA"
 
New "Load.BT_205654_M1" bus1="UC205654.1.4" phases=1 conn=delta model=2 kv=0.22 kw = 0.03663421613926171 pf=0.92 status=variable vmaxpu=1.5 vminpu=0.93 daily="RU1_SA" 
New "Load.BT_205654_M2" bus1="UC205654.1.4" phases=1 conn=delta model=3 kv=0.22 kw = 0.03663421613926171 pf=0.92 status=variable vmaxpu=1.5 vminpu=0.93 daily="RU1_SA"
 
New "Load.BT_205648_M1" bus1="UC205648.1.4" phases=1 conn=delta model=2 kv=0.22 kw = 0.2600770756192234 pf=0.92 status=variable vmaxpu=1.5 vminpu=0.93 daily="RU3_SA" 
New "Load.BT_205648_M2" bus1="UC205648.1.4" phases=1 conn=delta model=3 kv=0.22 kw = 0.2600770756192234 pf=0.92 status=variable vmaxpu=1.5 vminpu=0.93 daily="RU3_SA"
 
New "Load.BT_205645_M1" bus1="UC205645.2.4" phases=1 conn=delta model=2 kv=0.22 kw = 0.05885259043982965 pf=0.92 status=variable vmaxpu=1.5 vminpu=0.93 daily="RU8_SA" 
New "Load.BT_205645_M2" bus1="UC205645.2.4" phases=1 conn=delta model=3 kv=0.22 kw = 0.05885259043982965 pf=0.92 status=variable vmaxpu=1.5 vminpu=0.93 daily="RU8_SA"
 
New "Load.BT_222266_M1" bus1="UC222266.2.4" phases=1 conn=delta model=2 kv=0.22 kw = 0.0404071103935784 pf=0.92 status=variable vmaxpu=1.5 vminpu=0.93 daily="RU2_SA" 
New "Load.BT_222266_M2" bus1="UC222266.2.4" phases=1 conn=delta model=3 kv=0.22 kw = 0.0404071103935784 pf=0.92 status=variable vmaxpu=1.5 vminpu=0.93 daily="RU2_SA"
 
New "Load.BT_205731_M1" bus1="UC205731.1.4" phases=1 conn=delta model=2 kv=0.22 kw = 0.015810913595833427 pf=0.92 status=variable vmaxpu=1.5 vminpu=0.93 daily="CO4_SA" 
New "Load.BT_205731_M2" bus1="UC205731.1.4" phases=1 conn=delta model=3 kv=0.22 kw = 0.015810913595833427 pf=0.92 status=variable vmaxpu=1.5 vminpu=0.93 daily="CO4_SA"
 
New "Load.BT_205734_M1" bus1="UC205734.1.2.4" phases=2 conn=delta model=2 kv=0.44 kw = 0.38289345195121494 pf=0.92 status=variable vmaxpu=1.5 vminpu=0.93 daily="RU7_SA" 
New "Load.BT_205734_M2" bus1="UC205734.1.2.4" phases=2 conn=delta model=3 kv=0.44 kw = 0.38289345195121494 pf=0.92 status=variable vmaxpu=1.5 vminpu=0.93 daily="RU7_SA"
 
New "Load.BT_219392_M1" bus1="UC219392.1.4" phases=1 conn=delta model=2 kv=0.22 kw = 0.026859924934819836 pf=0.92 status=variable vmaxpu=1.5 vminpu=0.93 daily="RU6_SA" 
New "Load.BT_219392_M2" bus1="UC219392.1.4" phases=1 conn=delta model=3 kv=0.22 kw = 0.026859924934819836 pf=0.92 status=variable vmaxpu=1.5 vminpu=0.93 daily="RU6_SA"
 
New "Load.BT_219394_M1" bus1="UC219394.1.4" phases=1 conn=delta model=2 kv=0.22 kw = 0.1261306062752821 pf=0.92 status=variable vmaxpu=1.5 vminpu=0.93 daily="RU2_SA" 
New "Load.BT_219394_M2" bus1="UC219394.1.4" phases=1 conn=delta model=3 kv=0.22 kw = 0.1261306062752821 pf=0.92 status=variable vmaxpu=1.5 vminpu=0.93 daily="RU2_SA"
 
New "Load.BT_219377_M1" bus1="UC219377.1.2.4" phases=2 conn=delta model=2 kv=0.44 kw = 2.1050581208242742 pf=0.92 status=variable vmaxpu=1.5 vminpu=0.93 daily="PP7_SA" 
New "Load.BT_219377_M2" bus1="UC219377.1.2.4" phases=2 conn=delta model=3 kv=0.44 kw = 2.1050581208242742 pf=0.92 status=variable vmaxpu=1.5 vminpu=0.93 daily="PP7_SA"
 
New "Load.BT_219381_M1" bus1="UC219381.1.4" phases=1 conn=delta model=2 kv=0.22 kw = 0.061028916661550615 pf=0.92 status=variable vmaxpu=1.5 vminpu=0.93 daily="RU3_SA" 
New "Load.BT_219381_M2" bus1="UC219381.1.4" phases=1 conn=delta model=3 kv=0.22 kw = 0.061028916661550615 pf=0.92 status=variable vmaxpu=1.5 vminpu=0.93 daily="RU3_SA"
 
New "Load.BT_219384_M1" bus1="UC219384.1.4" phases=1 conn=delta model=2 kv=0.22 kw = 0.09858517306865869 pf=0.92 status=variable vmaxpu=1.5 vminpu=0.93 daily="RU3_SA" 
New "Load.BT_219384_M2" bus1="UC219384.1.4" phases=1 conn=delta model=3 kv=0.22 kw = 0.09858517306865869 pf=0.92 status=variable vmaxpu=1.5 vminpu=0.93 daily="RU3_SA"
 
New "Load.BT_225587_M1" bus1="UC225587.1.4" phases=1 conn=delta model=2 kv=0.22 kw = 0.17088096665234173 pf=0.92 status=variable vmaxpu=1.5 vminpu=0.93 daily="RU3_SA" 
New "Load.BT_225587_M2" bus1="UC225587.1.4" phases=1 conn=delta model=3 kv=0.22 kw = 0.17088096665234173 pf=0.92 status=variable vmaxpu=1.5 vminpu=0.93 daily="RU3_SA"
 
New "Load.BT_205729_M1" bus1="UC205729.1.2.4" phases=2 conn=delta model=2 kv=0.44 kw = 0.10602601947955198 pf=0.92 status=variable vmaxpu=1.5 vminpu=0.93 daily="RU6_SA" 
New "Load.BT_205729_M2" bus1="UC205729.1.2.4" phases=2 conn=delta model=3 kv=0.44 kw = 0.10602601947955198 pf=0.92 status=variable vmaxpu=1.5 vminpu=0.93 daily="RU6_SA"
 
New "Load.BT_205730_M1" bus1="UC205730.2.4" phases=1 conn=delta model=2 kv=0.22 kw = 0.2206972141493612 pf=0.92 status=variable vmaxpu=1.5 vminpu=0.93 daily="RU8_SA" 
New "Load.BT_205730_M2" bus1="UC205730.2.4" phases=1 conn=delta model=3 kv=0.22 kw = 0.2206972141493612 pf=0.92 status=variable vmaxpu=1.5 vminpu=0.93 daily="RU8_SA"
 
New "Load.BT_205717_M1" bus1="UC205717.1.2.3.4" phases=3 conn=delta model=2 kv=0.38 kw = 0.07229579358368303 pf=0.92 status=variable vmaxpu=1.5 vminpu=0.93 daily="RU3_SA" 
New "Load.BT_205717_M2" bus1="UC205717.1.2.3.4" phases=3 conn=delta model=3 kv=0.38 kw = 0.07229579358368303 pf=0.92 status=variable vmaxpu=1.5 vminpu=0.93 daily="RU3_SA"
 
New "Load.BT_205719_M1" bus1="UC205719.2.4" phases=1 conn=delta model=2 kv=0.22 kw = 0.0 pf=0.92 status=variable vmaxpu=1.5 vminpu=0.93 daily="RE6_SA" 
New "Load.BT_205719_M2" bus1="UC205719.2.4" phases=1 conn=delta model=3 kv=0.22 kw = 0.0 pf=0.92 status=variable vmaxpu=1.5 vminpu=0.93 daily="RE6_SA"
 
New "Load.BT_205722_M1" bus1="UC205722.1.2.3.4" phases=3 conn=delta model=2 kv=0.38 kw = 0.14271377434701069 pf=0.92 status=variable vmaxpu=1.5 vminpu=0.93 daily="RU3_SA" 
New "Load.BT_205722_M2" bus1="UC205722.1.2.3.4" phases=3 conn=delta model=3 kv=0.38 kw = 0.14271377434701069 pf=0.92 status=variable vmaxpu=1.5 vminpu=0.93 daily="RU3_SA"
 
New "Load.BT_205727_M1" bus1="UC205727.1.4" phases=1 conn=delta model=2 kv=0.22 kw = 0.08644582262465546 pf=0.92 status=variable vmaxpu=1.5 vminpu=0.93 daily="RU5_SA" 
New "Load.BT_205727_M2" bus1="UC205727.1.4" phases=1 conn=delta model=3 kv=0.22 kw = 0.08644582262465546 pf=0.92 status=variable vmaxpu=1.5 vminpu=0.93 daily="RU5_SA"
 
New "Load.BT_205710_M1" bus1="UC205710.1.2.3.4" phases=3 conn=delta model=2 kv=0.38 kw = 0.25726035638869027 pf=0.92 status=variable vmaxpu=1.5 vminpu=0.93 daily="RU3_SA" 
New "Load.BT_205710_M2" bus1="UC205710.1.2.3.4" phases=3 conn=delta model=3 kv=0.38 kw = 0.25726035638869027 pf=0.92 status=variable vmaxpu=1.5 vminpu=0.93 daily="RU3_SA"
 
New "Load.BT_205711_M1" bus1="UC205711.2.4" phases=1 conn=delta model=2 kv=0.22 kw = 0.1329935732687007 pf=0.92 status=variable vmaxpu=1.5 vminpu=0.93 daily="RU5_SA" 
New "Load.BT_205711_M2" bus1="UC205711.2.4" phases=1 conn=delta model=3 kv=0.22 kw = 0.1329935732687007 pf=0.92 status=variable vmaxpu=1.5 vminpu=0.93 daily="RU5_SA"
 
New "Load.BT_205713_M1" bus1="UC205713.2.4" phases=1 conn=delta model=2 kv=0.22 kw = 0.3239227115113072 pf=0.92 status=variable vmaxpu=1.5 vminpu=0.93 daily="RU3_SA" 
New "Load.BT_205713_M2" bus1="UC205713.2.4" phases=1 conn=delta model=3 kv=0.22 kw = 0.3239227115113072 pf=0.92 status=variable vmaxpu=1.5 vminpu=0.93 daily="RU3_SA"
 
New "Load.BT_219351_M1" bus1="UC219351.2.4" phases=1 conn=delta model=2 kv=0.22 kw = 0.1499760702004759 pf=0.92 status=variable vmaxpu=1.5 vminpu=0.93 daily="RU7_SA" 
New "Load.BT_219351_M2" bus1="UC219351.2.4" phases=1 conn=delta model=3 kv=0.22 kw = 0.1499760702004759 pf=0.92 status=variable vmaxpu=1.5 vminpu=0.93 daily="RU7_SA"
 
New "Load.BT_219353_M1" bus1="UC219353.2.4" phases=1 conn=delta model=2 kv=0.22 kw = 0.007477468492448425 pf=0.92 status=variable vmaxpu=1.5 vminpu=0.93 daily="RU1_SA" 
New "Load.BT_219353_M2" bus1="UC219353.2.4" phases=1 conn=delta model=3 kv=0.22 kw = 0.007477468492448425 pf=0.92 status=variable vmaxpu=1.5 vminpu=0.93 daily="RU1_SA"
 
New "Load.BT_219354_M1" bus1="UC219354.1.4" phases=1 conn=delta model=2 kv=0.22 kw = 0.11733546155737086 pf=0.92 status=variable vmaxpu=1.5 vminpu=0.93 daily="RU6_SA" 
New "Load.BT_219354_M2" bus1="UC219354.1.4" phases=1 conn=delta model=3 kv=0.22 kw = 0.11733546155737086 pf=0.92 status=variable vmaxpu=1.5 vminpu=0.93 daily="RU6_SA"
 
New "Load.BT_219361_M1" bus1="UC219361.1.2.3.4" phases=3 conn=delta model=2 kv=0.38 kw = 0.13599309603532098 pf=0.92 status=variable vmaxpu=1.5 vminpu=0.93 daily="RU1_SA" 
New "Load.BT_219361_M2" bus1="UC219361.1.2.3.4" phases=3 conn=delta model=3 kv=0.38 kw = 0.13599309603532098 pf=0.92 status=variable vmaxpu=1.5 vminpu=0.93 daily="RU1_SA"
 
New "Load.BT_219363_M1" bus1="UC219363.2.4" phases=1 conn=delta model=2 kv=0.22 kw = 0.06760506641158953 pf=0.92 status=variable vmaxpu=1.5 vminpu=0.93 daily="RU5_SA" 
New "Load.BT_219363_M2" bus1="UC219363.2.4" phases=1 conn=delta model=3 kv=0.22 kw = 0.06760506641158953 pf=0.92 status=variable vmaxpu=1.5 vminpu=0.93 daily="RU5_SA"
 
New "Load.BT_205709_M1" bus1="UC205709.1.4" phases=1 conn=delta model=2 kv=0.22 kw = 0.05633438461066211 pf=0.92 status=variable vmaxpu=1.5 vminpu=0.93 daily="RU3_SA" 
New "Load.BT_205709_M2" bus1="UC205709.1.4" phases=1 conn=delta model=3 kv=0.22 kw = 0.05633438461066211 pf=0.92 status=variable vmaxpu=1.5 vminpu=0.93 daily="RU3_SA"
 
New "Load.BT_225590_M1" bus1="UC225590.2.4" phases=1 conn=delta model=2 kv=0.22 kw = 0.08168485768546006 pf=0.92 status=variable vmaxpu=1.5 vminpu=0.93 daily="RU3_SA" 
New "Load.BT_225590_M2" bus1="UC225590.2.4" phases=1 conn=delta model=3 kv=0.22 kw = 0.08168485768546006 pf=0.92 status=variable vmaxpu=1.5 vminpu=0.93 daily="RU3_SA"
 
New "Load.BT_225591_M1" bus1="UC225591.1.4" phases=1 conn=delta model=2 kv=0.22 kw = 0.039434069227463474 pf=0.92 status=variable vmaxpu=1.5 vminpu=0.93 daily="RU3_SA" 
New "Load.BT_225591_M2" bus1="UC225591.1.4" phases=1 conn=delta model=3 kv=0.22 kw = 0.039434069227463474 pf=0.92 status=variable vmaxpu=1.5 vminpu=0.93 daily="RU3_SA"
 
New "Load.BT_225591_M1" bus1="UC225591.1.4" phases=1 conn=delta model=2 kv=0.22 kw = 0.13546697549859368 pf=0.92 status=variable vmaxpu=1.5 vminpu=0.93 daily="RU4_SA" 
New "Load.BT_225591_M2" bus1="UC225591.1.4" phases=1 conn=delta model=3 kv=0.22 kw = 0.13546697549859368 pf=0.92 status=variable vmaxpu=1.5 vminpu=0.93 daily="RU4_SA"
 
New "Load.BT_225593_M1" bus1="UC225593.2.4" phases=1 conn=delta model=2 kv=0.22 kw = 0.12634389460526568 pf=0.92 status=variable vmaxpu=1.5 vminpu=0.93 daily="RU5_SA" 
New "Load.BT_225593_M2" bus1="UC225593.2.4" phases=1 conn=delta model=3 kv=0.22 kw = 0.12634389460526568 pf=0.92 status=variable vmaxpu=1.5 vminpu=0.93 daily="RU5_SA"
 
New "Load.BT_205706_M1" bus1="UC205706.1.2.4" phases=2 conn=delta model=2 kv=0.44 kw = 0.2869063783941695 pf=0.92 status=variable vmaxpu=1.5 vminpu=0.93 daily="RU8_SA" 
New "Load.BT_205706_M2" bus1="UC205706.1.2.4" phases=2 conn=delta model=3 kv=0.44 kw = 0.2869063783941695 pf=0.92 status=variable vmaxpu=1.5 vminpu=0.93 daily="RU8_SA"
 
New "Load.BT_205707_M1" bus1="UC205707.1.4" phases=1 conn=delta model=2 kv=0.22 kw = 0.004476931439863339 pf=0.92 status=variable vmaxpu=1.5 vminpu=0.93 daily="CO3_SA" 
New "Load.BT_205707_M2" bus1="UC205707.1.4" phases=1 conn=delta model=3 kv=0.22 kw = 0.004476931439863339 pf=0.92 status=variable vmaxpu=1.5 vminpu=0.93 daily="CO3_SA"
 
New "Load.BT_225285_M1" bus1="UC225285.1.4" phases=1 conn=delta model=2 kv=0.22 kw = 0.04191765657651591 pf=0.92 status=variable vmaxpu=1.5 vminpu=0.93 daily="RU2_SA" 
New "Load.BT_225285_M2" bus1="UC225285.1.4" phases=1 conn=delta model=3 kv=0.22 kw = 0.04191765657651591 pf=0.92 status=variable vmaxpu=1.5 vminpu=0.93 daily="RU2_SA"
 
New "Load.BT_225286_M1" bus1="UC225286.1.4" phases=1 conn=delta model=2 kv=0.22 kw = 0.007953276450025236 pf=0.92 status=variable vmaxpu=1.5 vminpu=0.93 daily="RU7_SA" 
New "Load.BT_225286_M2" bus1="UC225286.1.4" phases=1 conn=delta model=3 kv=0.22 kw = 0.007953276450025236 pf=0.92 status=variable vmaxpu=1.5 vminpu=0.93 daily="RU7_SA"
 
New "Load.BT_225289_M1" bus1="UC225289.1.4" phases=1 conn=delta model=2 kv=0.22 kw = 0.3124283398886485 pf=0.92 status=variable vmaxpu=1.5 vminpu=0.93 daily="RU4_SA" 
New "Load.BT_225289_M2" bus1="UC225289.1.4" phases=1 conn=delta model=3 kv=0.22 kw = 0.3124283398886485 pf=0.92 status=variable vmaxpu=1.5 vminpu=0.93 daily="RU4_SA"
 
New "Load.BT_225290_M1" bus1="UC225290.2.4" phases=1 conn=delta model=2 kv=0.22 kw = 0.10046298588901409 pf=0.92 status=variable vmaxpu=1.5 vminpu=0.93 daily="RU3_SA" 
New "Load.BT_225290_M2" bus1="UC225290.2.4" phases=1 conn=delta model=3 kv=0.22 kw = 0.10046298588901409 pf=0.92 status=variable vmaxpu=1.5 vminpu=0.93 daily="RU3_SA"
 
New "Load.BT_205695_M1" bus1="UC205695.1.4" phases=1 conn=delta model=2 kv=0.22 kw = 0.4458083725817096 pf=0.92 status=variable vmaxpu=1.5 vminpu=0.93 daily="RU8_SA" 
New "Load.BT_205695_M2" bus1="UC205695.1.4" phases=1 conn=delta model=3 kv=0.22 kw = 0.4458083725817096 pf=0.92 status=variable vmaxpu=1.5 vminpu=0.93 daily="RU8_SA"
 
New "Load.BT_205699_M1" bus1="UC205699.1.4" phases=1 conn=delta model=2 kv=0.22 kw = 0.04708207235186372 pf=0.92 status=variable vmaxpu=1.5 vminpu=0.93 daily="RU8_SA" 
New "Load.BT_205699_M2" bus1="UC205699.1.4" phases=1 conn=delta model=3 kv=0.22 kw = 0.04708207235186372 pf=0.92 status=variable vmaxpu=1.5 vminpu=0.93 daily="RU8_SA"
 
New "Load.BT_205700_M1" bus1="UC205700.1.4" phases=1 conn=delta model=2 kv=0.22 kw = 0.379031683815797 pf=0.92 status=variable vmaxpu=1.5 vminpu=0.93 daily="RU5_SA" 
New "Load.BT_205700_M2" bus1="UC205700.1.4" phases=1 conn=delta model=3 kv=0.22 kw = 0.379031683815797 pf=0.92 status=variable vmaxpu=1.5 vminpu=0.93 daily="RU5_SA"
 
New "Load.BT_205703_M1" bus1="UC205703.1.4" phases=1 conn=delta model=2 kv=0.22 kw = 0.0 pf=0.92 status=variable vmaxpu=1.5 vminpu=0.93 daily="RU1_SA" 
New "Load.BT_205703_M2" bus1="UC205703.1.4" phases=1 conn=delta model=3 kv=0.22 kw = 0.0 pf=0.92 status=variable vmaxpu=1.5 vminpu=0.93 daily="RU1_SA"
 
New "Load.BT_218342_M1" bus1="UC218342.1.4" phases=1 conn=delta model=2 kv=0.22 kw = 0.10983808824210298 pf=0.92 status=variable vmaxpu=1.5 vminpu=0.93 daily="RU4_SA" 
New "Load.BT_218342_M2" bus1="UC218342.1.4" phases=1 conn=delta model=3 kv=0.22 kw = 0.10983808824210298 pf=0.92 status=variable vmaxpu=1.5 vminpu=0.93 daily="RU4_SA"
 
New "Load.BT_224968_M1" bus1="UC224968.2.4" phases=1 conn=delta model=2 kv=0.22 kw = 0.014309400136627919 pf=0.92 status=variable vmaxpu=1.5 vminpu=0.93 daily="RU1_SA" 
New "Load.BT_224968_M2" bus1="UC224968.2.4" phases=1 conn=delta model=3 kv=0.22 kw = 0.014309400136627919 pf=0.92 status=variable vmaxpu=1.5 vminpu=0.93 daily="RU1_SA"
 
New "Load.BT_225281_M1" bus1="UC225281.1.4" phases=1 conn=delta model=2 kv=0.22 kw = 0.10029156318895245 pf=0.92 status=variable vmaxpu=1.5 vminpu=0.93 daily="RE6_SA" 
New "Load.BT_225281_M2" bus1="UC225281.1.4" phases=1 conn=delta model=3 kv=0.22 kw = 0.10029156318895245 pf=0.92 status=variable vmaxpu=1.5 vminpu=0.93 daily="RE6_SA"
 
New "Load.BT_218304_M1" bus1="UC218304.1.2.3.4" phases=3 conn=delta model=2 kv=0.38 kw = 0.1397504290504434 pf=0.92 status=variable vmaxpu=1.5 vminpu=0.93 daily="RU7_SA" 
New "Load.BT_218304_M2" bus1="UC218304.1.2.3.4" phases=3 conn=delta model=3 kv=0.38 kw = 0.1397504290504434 pf=0.92 status=variable vmaxpu=1.5 vminpu=0.93 daily="RU7_SA"
 
New "Load.BT_218305_M1" bus1="UC218305.3.4" phases=1 conn=delta model=2 kv=0.22 kw = 0.02216343179056655 pf=0.92 status=variable vmaxpu=1.5 vminpu=0.93 daily="RU1_SA" 
New "Load.BT_218305_M2" bus1="UC218305.3.4" phases=1 conn=delta model=3 kv=0.22 kw = 0.02216343179056655 pf=0.92 status=variable vmaxpu=1.5 vminpu=0.93 daily="RU1_SA"
 
New "Load.BT_218309_M1" bus1="UC218309.1.4" phases=1 conn=delta model=2 kv=0.22 kw = 0.008445773764851817 pf=0.92 status=variable vmaxpu=1.5 vminpu=0.93 daily="RU1_SA" 
New "Load.BT_218309_M2" bus1="UC218309.1.4" phases=1 conn=delta model=3 kv=0.22 kw = 0.008445773764851817 pf=0.92 status=variable vmaxpu=1.5 vminpu=0.93 daily="RU1_SA"
 
New "Load.BT_218318_M1" bus1="UC218318.1.4" phases=1 conn=delta model=2 kv=0.22 kw = 0.22498079477955207 pf=0.92 status=variable vmaxpu=1.5 vminpu=0.93 daily="RU5_SA" 
New "Load.BT_218318_M2" bus1="UC218318.1.4" phases=1 conn=delta model=3 kv=0.22 kw = 0.22498079477955207 pf=0.92 status=variable vmaxpu=1.5 vminpu=0.93 daily="RU5_SA"
 
New "Load.BT_218320_M1" bus1="UC218320.1.4" phases=1 conn=delta model=2 kv=0.22 kw = 0.06324365438333371 pf=0.92 status=variable vmaxpu=1.5 vminpu=0.93 daily="CO4_SA" 
New "Load.BT_218320_M2" bus1="UC218320.1.4" phases=1 conn=delta model=3 kv=0.22 kw = 0.06324365438333371 pf=0.92 status=variable vmaxpu=1.5 vminpu=0.93 daily="CO4_SA"
 
New "Load.BT_218323_M1" bus1="UC218323.1.4" phases=1 conn=delta model=2 kv=0.22 kw = 0.25018675655145683 pf=0.92 status=variable vmaxpu=1.5 vminpu=0.93 daily="RU4_SA" 
New "Load.BT_218323_M2" bus1="UC218323.1.4" phases=1 conn=delta model=3 kv=0.22 kw = 0.25018675655145683 pf=0.92 status=variable vmaxpu=1.5 vminpu=0.93 daily="RU4_SA"
 
New "Load.BT_223646_M1" bus1="UC223646.1.4" phases=1 conn=delta model=2 kv=0.22 kw = 0.060044210771766034 pf=0.92 status=variable vmaxpu=1.5 vminpu=0.93 daily="RU2_SA" 
New "Load.BT_223646_M2" bus1="UC223646.1.4" phases=1 conn=delta model=3 kv=0.22 kw = 0.060044210771766034 pf=0.92 status=variable vmaxpu=1.5 vminpu=0.93 daily="RU2_SA"
 
New "Load.BT_205687_M1" bus1="UC205687.1.4" phases=1 conn=delta model=2 kv=0.22 kw = 0.0959196826165319 pf=0.92 status=variable vmaxpu=1.5 vminpu=0.93 daily="RU2_SA" 
New "Load.BT_205687_M2" bus1="UC205687.1.4" phases=1 conn=delta model=3 kv=0.22 kw = 0.0959196826165319 pf=0.92 status=variable vmaxpu=1.5 vminpu=0.93 daily="RU2_SA"
 
New "Load.BT_205689_M1" bus1="UC205689.1.4" phases=1 conn=delta model=2 kv=0.22 kw = 0.04984802403693783 pf=0.92 status=variable vmaxpu=1.5 vminpu=0.93 daily="RU2_SA" 
New "Load.BT_205689_M2" bus1="UC205689.1.4" phases=1 conn=delta model=3 kv=0.22 kw = 0.04984802403693783 pf=0.92 status=variable vmaxpu=1.5 vminpu=0.93 daily="RU2_SA"
 
New "Load.BT_205691_M1" bus1="UC205691.1.2.4" phases=2 conn=delta model=2 kv=0.44 kw = 0.08906185636282365 pf=0.92 status=variable vmaxpu=1.5 vminpu=0.93 daily="RU6_SA" 
New "Load.BT_205691_M2" bus1="UC205691.1.2.4" phases=2 conn=delta model=3 kv=0.44 kw = 0.08906185636282365 pf=0.92 status=variable vmaxpu=1.5 vminpu=0.93 daily="RU6_SA"
 
New "Load.BT_223645_M1" bus1="UC223645.1.4" phases=1 conn=delta model=2 kv=0.22 kw = 0.044139442829872234 pf=0.92 status=variable vmaxpu=1.5 vminpu=0.93 daily="RU8_SA" 
New "Load.BT_223645_M2" bus1="UC223645.1.4" phases=1 conn=delta model=3 kv=0.22 kw = 0.044139442829872234 pf=0.92 status=variable vmaxpu=1.5 vminpu=0.93 daily="RU8_SA"
 
New "Load.BT_223633_M1" bus1="UC223633.1.4" phases=1 conn=delta model=2 kv=0.22 kw = 0.22194780077719548 pf=0.92 status=variable vmaxpu=1.5 vminpu=0.93 daily="RU6_SA" 
New "Load.BT_223633_M2" bus1="UC223633.1.4" phases=1 conn=delta model=3 kv=0.22 kw = 0.22194780077719548 pf=0.92 status=variable vmaxpu=1.5 vminpu=0.93 daily="RU6_SA"
 
New "Load.BT_223634_M1" bus1="UC223634.1.4" phases=1 conn=delta model=2 kv=0.22 kw = 0.09543931740030284 pf=0.92 status=variable vmaxpu=1.5 vminpu=0.93 daily="RU7_SA" 
New "Load.BT_223634_M2" bus1="UC223634.1.4" phases=1 conn=delta model=3 kv=0.22 kw = 0.09543931740030284 pf=0.92 status=variable vmaxpu=1.5 vminpu=0.93 daily="RU7_SA"
 
New "Load.BT_223644_M1" bus1="UC223644.1.4" phases=1 conn=delta model=2 kv=0.22 kw = 0.09827877779645196 pf=0.92 status=variable vmaxpu=1.5 vminpu=0.93 daily="RE5_SA" 
New "Load.BT_223644_M2" bus1="UC223644.1.4" phases=1 conn=delta model=3 kv=0.22 kw = 0.09827877779645196 pf=0.92 status=variable vmaxpu=1.5 vminpu=0.93 daily="RE5_SA"
 
New "Load.BT_217026_M1" bus1="UC217026.1.4" phases=1 conn=delta model=2 kv=0.22 kw = 0.09771168210031005 pf=0.92 status=variable vmaxpu=1.5 vminpu=0.93 daily="RU7_SA" 
New "Load.BT_217026_M2" bus1="UC217026.1.4" phases=1 conn=delta model=3 kv=0.22 kw = 0.09771168210031005 pf=0.92 status=variable vmaxpu=1.5 vminpu=0.93 daily="RU7_SA"
 
New "Load.BT_217031_M1" bus1="UC217031.1.4" phases=1 conn=delta model=2 kv=0.22 kw = 0.12834042990665268 pf=0.92 status=variable vmaxpu=1.5 vminpu=0.93 daily="RE2_SA" 
New "Load.BT_217031_M2" bus1="UC217031.1.4" phases=1 conn=delta model=3 kv=0.22 kw = 0.12834042990665268 pf=0.92 status=variable vmaxpu=1.5 vminpu=0.93 daily="RE2_SA"
 
New "Load.BT_218301_M1" bus1="UC218301.1.2.4" phases=2 conn=delta model=2 kv=0.44 kw = 0.1586550163497043 pf=0.92 status=variable vmaxpu=1.5 vminpu=0.93 daily="RU4_SA" 
New "Load.BT_218301_M2" bus1="UC218301.1.2.4" phases=2 conn=delta model=3 kv=0.44 kw = 0.1586550163497043 pf=0.92 status=variable vmaxpu=1.5 vminpu=0.93 daily="RU4_SA"
 
New "Load.BT_223630_M1" bus1="UC223630.2.4" phases=1 conn=delta model=2 kv=0.22 kw = 0.08825720255670397 pf=0.92 status=variable vmaxpu=1.5 vminpu=0.93 daily="RU3_SA" 
New "Load.BT_223630_M2" bus1="UC223630.2.4" phases=1 conn=delta model=3 kv=0.22 kw = 0.08825720255670397 pf=0.92 status=variable vmaxpu=1.5 vminpu=0.93 daily="RU3_SA"
 
New "Load.BT_223631_M1" bus1="UC223631.2.4" phases=1 conn=delta model=2 kv=0.22 kw = 0.14278170623246333 pf=0.92 status=variable vmaxpu=1.5 vminpu=0.93 daily="RU6_SA" 
New "Load.BT_223631_M2" bus1="UC223631.2.4" phases=1 conn=delta model=3 kv=0.22 kw = 0.14278170623246333 pf=0.92 status=variable vmaxpu=1.5 vminpu=0.93 daily="RU6_SA"
 
New "Load.BT_222260_M1" bus1="UC222260.1.4" phases=1 conn=delta model=2 kv=0.22 kw = 0.3488079814511068 pf=0.92 status=variable vmaxpu=1.5 vminpu=0.93 daily="RU7_SA" 
New "Load.BT_222260_M2" bus1="UC222260.1.4" phases=1 conn=delta model=3 kv=0.22 kw = 0.3488079814511068 pf=0.92 status=variable vmaxpu=1.5 vminpu=0.93 daily="RU7_SA"
 
New "Load.BT_222263_M1" bus1="UC222263.1.4" phases=1 conn=delta model=2 kv=0.22 kw = 0.10687114244282886 pf=0.92 status=variable vmaxpu=1.5 vminpu=0.93 daily="RU2_SA" 
New "Load.BT_222263_M2" bus1="UC222263.1.4" phases=1 conn=delta model=3 kv=0.22 kw = 0.10687114244282886 pf=0.92 status=variable vmaxpu=1.5 vminpu=0.93 daily="RU2_SA"
 
New "Load.BT_205680_M1" bus1="UC205680.1.2.3.4" phases=3 conn=delta model=2 kv=0.38 kw = 0.10385005007695382 pf=0.92 status=variable vmaxpu=1.5 vminpu=0.93 daily="RU2_SA" 
New "Load.BT_205680_M2" bus1="UC205680.1.2.3.4" phases=3 conn=delta model=3 kv=0.38 kw = 0.10385005007695382 pf=0.92 status=variable vmaxpu=1.5 vminpu=0.93 daily="RU2_SA"
 
New "Load.BT_205681_M1" bus1="UC205681.1.2.4" phases=2 conn=delta model=2 kv=0.44 kw = 0.7341860657368748 pf=0.92 status=variable vmaxpu=1.5 vminpu=0.93 daily="RU8_SA" 
New "Load.BT_205681_M2" bus1="UC205681.1.2.4" phases=2 conn=delta model=3 kv=0.44 kw = 0.7341860657368748 pf=0.92 status=variable vmaxpu=1.5 vminpu=0.93 daily="RU8_SA"
 
New "Load.BT_205675_M1" bus1="UC205675.2.4" phases=1 conn=delta model=2 kv=0.22 kw = 0.018840756213065933 pf=0.92 status=variable vmaxpu=1.5 vminpu=0.93 daily="RU5_SA" 
New "Load.BT_205675_M2" bus1="UC205675.2.4" phases=1 conn=delta model=3 kv=0.22 kw = 0.018840756213065933 pf=0.92 status=variable vmaxpu=1.5 vminpu=0.93 daily="RU5_SA"
 
New "Load.BT_238952_M1" bus1="UC238952.2.4" phases=1 conn=delta model=2 kv=0.22 kw = 0.0010883112220578695 pf=0.92 status=variable vmaxpu=1.5 vminpu=0.93 daily="RE3_SA" 
New "Load.BT_238952_M2" bus1="UC238952.2.4" phases=1 conn=delta model=3 kv=0.22 kw = 0.0010883112220578695 pf=0.92 status=variable vmaxpu=1.5 vminpu=0.93 daily="RE3_SA"
 
New "Load.BT_205735_M1" bus1="UC205735.3.1.4" phases=2 conn=delta model=2 kv=0.38 kw = 0.8334263924838577 pf=0.92 status=variable vmaxpu=1.5 vminpu=0.93 daily="RU5_SA" 
New "Load.BT_205735_M2" bus1="UC205735.3.1.4" phases=2 conn=delta model=3 kv=0.38 kw = 0.8334263924838577 pf=0.92 status=variable vmaxpu=1.5 vminpu=0.93 daily="RU5_SA"
 
New "Load.BT_238959_M1" bus1="UC238959.1.4" phases=1 conn=delta model=2 kv=0.22 kw = 0.046345155244069014 pf=0.92 status=variable vmaxpu=1.5 vminpu=0.93 daily="RE2_SA" 
New "Load.BT_238959_M2" bus1="UC238959.1.4" phases=1 conn=delta model=3 kv=0.22 kw = 0.046345155244069014 pf=0.92 status=variable vmaxpu=1.5 vminpu=0.93 daily="RE2_SA"
 
New "Load.BT_221689_M1" bus1="UC221689.1.4" phases=1 conn=delta model=2 kv=0.22 kw = 0.4919607303851212 pf=0.92 status=variable vmaxpu=1.5 vminpu=0.93 daily="RU6_SA" 
New "Load.BT_221689_M2" bus1="UC221689.1.4" phases=1 conn=delta model=3 kv=0.22 kw = 0.4919607303851212 pf=0.92 status=variable vmaxpu=1.5 vminpu=0.93 daily="RU6_SA"
 
New "Load.BT_238205_M1" bus1="UC238205.2.4" phases=1 conn=delta model=2 kv=0.22 kw = 0.021612187502437655 pf=0.92 status=variable vmaxpu=1.5 vminpu=0.93 daily="RE1_SA" 
New "Load.BT_238205_M2" bus1="UC238205.2.4" phases=1 conn=delta model=3 kv=0.22 kw = 0.021612187502437655 pf=0.92 status=variable vmaxpu=1.5 vminpu=0.93 daily="RE1_SA"
 
New "Load.BT_235961_M1" bus1="UC235961.1.4" phases=1 conn=delta model=2 kv=0.22 kw = 0.04665144857100287 pf=0.92 status=variable vmaxpu=1.5 vminpu=0.93 daily="RU6_SA" 
New "Load.BT_235961_M2" bus1="UC235961.1.4" phases=1 conn=delta model=3 kv=0.22 kw = 0.04665144857100287 pf=0.92 status=variable vmaxpu=1.5 vminpu=0.93 daily="RU6_SA"
 
New "Load.BT_237573_M1" bus1="UC237573.1.4" phases=1 conn=delta model=2 kv=0.22 kw = 0.046006414098707385 pf=0.92 status=variable vmaxpu=1.5 vminpu=0.93 daily="RU3_SA" 
New "Load.BT_237573_M2" bus1="UC237573.1.4" phases=1 conn=delta model=3 kv=0.22 kw = 0.046006414098707385 pf=0.92 status=variable vmaxpu=1.5 vminpu=0.93 daily="RU3_SA"
 
New "Load.BT_237359_M1" bus1="UC237359.2.4" phases=1 conn=delta model=2 kv=0.22 kw = 0.0876116786103756 pf=0.92 status=variable vmaxpu=1.5 vminpu=0.93 daily="RU2_SA" 
New "Load.BT_237359_M2" bus1="UC237359.2.4" phases=1 conn=delta model=3 kv=0.22 kw = 0.0876116786103756 pf=0.92 status=variable vmaxpu=1.5 vminpu=0.93 daily="RU2_SA"
 
New "Load.BT_237167_M1" bus1="UC237167.2.4" phases=1 conn=delta model=2 kv=0.22 kw = 0.1773247643582676 pf=0.92 status=variable vmaxpu=1.5 vminpu=0.93 daily="RU5_SA" 
New "Load.BT_237167_M2" bus1="UC237167.2.4" phases=1 conn=delta model=3 kv=0.22 kw = 0.1773247643582676 pf=0.92 status=variable vmaxpu=1.5 vminpu=0.93 daily="RU5_SA"
 
New "Load.BT_236486_M1" bus1="UC236486.1.4" phases=1 conn=delta model=2 kv=0.22 kw = 0.18801947454373885 pf=0.92 status=variable vmaxpu=1.5 vminpu=0.93 daily="RU6_SA" 
New "Load.BT_236486_M2" bus1="UC236486.1.4" phases=1 conn=delta model=3 kv=0.22 kw = 0.18801947454373885 pf=0.92 status=variable vmaxpu=1.5 vminpu=0.93 daily="RU6_SA"
 
New "Load.BT_2836677_M1" bus1="UC2836677.1.4" phases=1 conn=delta model=2 kv=0.22 kw = 0.06268766659190667 pf=0.92 status=variable vmaxpu=1.5 vminpu=0.93 daily="RU2_SA" 
New "Load.BT_2836677_M2" bus1="UC2836677.1.4" phases=1 conn=delta model=3 kv=0.22 kw = 0.06268766659190667 pf=0.92 status=variable vmaxpu=1.5 vminpu=0.93 daily="RU2_SA"
 
New "Load.BT_2836674_M1" bus1="UC2836674.2.4" phases=1 conn=delta model=2 kv=0.22 kw = 0.021205203895910397 pf=0.92 status=variable vmaxpu=1.5 vminpu=0.93 daily="RU6_SA" 
New "Load.BT_2836674_M2" bus1="UC2836674.2.4" phases=1 conn=delta model=3 kv=0.22 kw = 0.021205203895910397 pf=0.92 status=variable vmaxpu=1.5 vminpu=0.93 daily="RU6_SA"
 
New "Load.BT_235585_M1" bus1="UC235585.1.2.4" phases=2 conn=delta model=2 kv=0.44 kw = 0.8976869649268734 pf=0.92 status=variable vmaxpu=1.5 vminpu=0.93 daily="RU6_SA" 
New "Load.BT_235585_M2" bus1="UC235585.1.2.4" phases=2 conn=delta model=3 kv=0.44 kw = 0.8976869649268734 pf=0.92 status=variable vmaxpu=1.5 vminpu=0.93 daily="RU6_SA"
 
New "Load.BT_2805422_M1" bus1="UC2805422.1.2.4" phases=2 conn=delta model=2 kv=0.44 kw = 0.022384657199316694 pf=0.92 status=variable vmaxpu=1.5 vminpu=0.93 daily="CO3_SA" 
New "Load.BT_2805422_M2" bus1="UC2805422.1.2.4" phases=2 conn=delta model=3 kv=0.44 kw = 0.022384657199316694 pf=0.92 status=variable vmaxpu=1.5 vminpu=0.93 daily="CO3_SA"
 
New "Load.BT_2835970_M1" bus1="UC2835970.1.4" phases=1 conn=delta model=2 kv=0.22 kw = 0.050603297128406596 pf=0.92 status=variable vmaxpu=1.5 vminpu=0.93 daily="RU2_SA" 
New "Load.BT_2835970_M2" bus1="UC2835970.1.4" phases=1 conn=delta model=3 kv=0.22 kw = 0.050603297128406596 pf=0.92 status=variable vmaxpu=1.5 vminpu=0.93 daily="RU2_SA"
 
New "Load.BT_236232_M1" bus1="UC236232.1.2.3.4" phases=3 conn=delta model=2 kv=0.38 kw = 0.2431767602360248 pf=0.92 status=variable vmaxpu=1.5 vminpu=0.93 daily="RU3_SA" 
New "Load.BT_236232_M2" bus1="UC236232.1.2.3.4" phases=3 conn=delta model=3 kv=0.38 kw = 0.2431767602360248 pf=0.92 status=variable vmaxpu=1.5 vminpu=0.93 daily="RU3_SA"
 
New "Load.BT_205652_M1" bus1="UC205652.1.4" phases=1 conn=delta model=2 kv=0.22 kw = 0.20170691945752942 pf=0.92 status=variable vmaxpu=1.5 vminpu=0.93 daily="RU5_SA" 
New "Load.BT_205652_M2" bus1="UC205652.1.4" phases=1 conn=delta model=3 kv=0.22 kw = 0.20170691945752942 pf=0.92 status=variable vmaxpu=1.5 vminpu=0.93 daily="RU5_SA"
 
New "Load.BT_205761_M1" bus1="UC205761.1.2.3.4" phases=3 conn=delta model=2 kv=0.38 kw = 1.1152565888347716 pf=0.92 status=variable vmaxpu=1.5 vminpu=0.93 daily="RU8_SA" 
New "Load.BT_205761_M2" bus1="UC205761.1.2.3.4" phases=3 conn=delta model=3 kv=0.38 kw = 1.1152565888347716 pf=0.92 status=variable vmaxpu=1.5 vminpu=0.93 daily="RU8_SA"
 
New "Load.BT_225860_M1" bus1="UC225860.2.4" phases=1 conn=delta model=2 kv=0.22 kw = 0.21374982269986204 pf=0.92 status=variable vmaxpu=1.5 vminpu=0.93 daily="RE8_SA" 
New "Load.BT_225860_M2" bus1="UC225860.2.4" phases=1 conn=delta model=3 kv=0.22 kw = 0.21374982269986204 pf=0.92 status=variable vmaxpu=1.5 vminpu=0.93 daily="RE8_SA"
 
New "Load.BT_235692_M1" bus1="UC235692.1.4" phases=1 conn=delta model=2 kv=0.22 kw = 0.08070066202726874 pf=0.92 status=variable vmaxpu=1.5 vminpu=0.93 daily="RE7_SA" 
New "Load.BT_235692_M2" bus1="UC235692.1.4" phases=1 conn=delta model=3 kv=0.22 kw = 0.08070066202726874 pf=0.92 status=variable vmaxpu=1.5 vminpu=0.93 daily="RE7_SA"
 
New "Load.BT_235691_M1" bus1="UC235691.2.4" phases=1 conn=delta model=2 kv=0.22 kw = 0.073225392161402 pf=0.92 status=variable vmaxpu=1.5 vminpu=0.93 daily="RU4_SA" 
...